# created with PyMOL 3.0.5
@<TRIPOS>MOLECULE
obj02
44 46 5                 
SMALL
USER_CHARGES
@<TRIPOS>ATOM
1	   N	37.602	52.012	35.415	N.3	1	TYR1	0.000	
2	  CA	36.967	52.174	36.718	C.3	1	TYR1	0.000	
3	   C	37.638	51.334	37.800	C.2	1	TYR1	0.000	
4	   O	36.979	50.520	38.443	O.2	1	TYR1	0.000	
5	  CB	35.482	51.811	36.627	C.3	1	TYR1	0.000	
6	  CG	35.222	50.336	36.416	C.2	1	TYR1	0.000	
7	 CD1	36.264	49.465	36.124	C.2	1	TYR1	0.000	
8	 CD2	33.936	49.820	36.509	C.2	1	TYR1	0.000	
9	 CE1	36.035	48.117	35.930	C.2	1	TYR1	0.000	
10	 CE2	33.688	48.474	36.317	C.2	1	TYR1	0.000	
11	  CZ	34.739	47.624	36.028	C.2	1	TYR1	0.000	
12	  OH	34.504	46.283	35.836	O.3	1	TYR1	0.000	
13	   N	38.943	51.529	38.004	N.am	2	PRO2	0.000	
14	  CA	39.682	50.780	39.014	C.3	2	PRO2	0.000	
15	   C	39.154	51.179	40.388	C.2	2	PRO2	0.000	
16	   O	39.200	52.353	40.748	O.2	2	PRO2	0.000	
17	  CB	41.153	51.053	38.839	C.3	2	PRO2	0.000	
18	  CG	41.255	51.435	37.379	C.3	2	PRO2	0.000	
19	  CD	39.971	52.208	37.139	C.3	2	PRO2	0.000	
20	   N	38.653	50.207	41.155	N.am	3	GLN3	0.000	
21	  CA	38.122	50.478	42.486	C.3	3	GLN3	0.000	
22	   C	38.720	49.602	43.582	C.2	3	GLN3	0.000	
23	   O	38.861	48.395	43.397	O.2	3	GLN3	0.000	
24	  CB	36.600	50.292	42.480	C.3	3	GLN3	0.000	
25	  CG	35.929	50.657	43.795	C.3	3	GLN3	0.000	
26	  CD	35.861	52.156	44.015	C.2	3	GLN3	0.000	
27	 NE2	34.757	52.617	44.593	N.pl3	3	GLN3	0.000	
28	 OE1	36.788	52.888	43.670	O.2	3	GLN3	0.000	
29	   N	39.072	50.203	44.721	N.am	4	PRO4	0.000	
30	  CA	39.653	49.459	45.833	C.3	4	PRO4	0.000	
31	   C	38.587	48.541	46.423	C.2	4	PRO4	0.000	
32	   O	38.908	47.641	47.196	O.2	4	PRO4	0.000	
33	  CB	40.199	50.443	46.834	C.3	4	PRO4	0.000	
34	  CG	39.340	51.667	46.611	C.3	4	PRO4	0.000	
35	  CD	39.081	51.633	45.116	C.3	4	PRO4	0.000	
36	   N	37.321	48.765	46.062	N.am	5	GLN5	0.000	
37	  CA	36.223	47.947	46.567	C.3	5	GLN5	0.000	
38	   C	36.104	46.703	45.693	C.2	5	GLN5	0.000	
39	   O	35.119	46.548	44.974	O.2	5	GLN5	0.000	
40	  CB	34.919	48.738	46.625	C.3	5	GLN5	0.000	
41	  CG	34.918	49.863	47.647	C.3	5	GLN5	0.000	
42	  CD	34.746	49.359	49.066	C.2	5	GLN5	0.000	
43	 NE2	33.893	50.032	49.832	N.pl3	5	GLN5	0.000	
44	 OE1	35.373	48.380	49.469	O.2	5	GLN5	0.000	
@<TRIPOS>BOND
1 1 2 1
2 2 3 1
3 2 5 1
4 3 4 2
5 3 13 1
6 5 6 1
7 6 7 2
8 6 8 1
9 7 9 1
10 8 10 2
11 9 11 2
12 10 11 1
13 11 12 1
14 13 14 1
15 13 19 1
16 14 15 1
17 14 17 1
18 15 16 2
19 15 20 1
20 17 18 1
21 18 19 1
22 20 21 1
23 21 22 1
24 21 24 1
25 22 23 2
26 22 29 1
27 24 25 1
28 25 26 1
29 26 27 1
30 26 28 2
31 29 30 1
32 29 35 1
33 30 31 1
34 30 33 1
35 31 32 2
36 31 36 1
37 33 34 1
38 34 35 1
39 36 37 1
40 37 38 1
41 37 40 1
42 38 39 2
43 40 41 1
44 41 42 1
45 42 43 1
46 42 44 2
@<TRIPOS>SUBSTRUCTURE
1	TYR1	1	RESIDUE	1 B	TYR
2	PRO2	13	RESIDUE	1 B	PRO
3	GLN3	20	RESIDUE	1 B	GLN
4	PRO4	29	RESIDUE	1 B	PRO
5	GLN5	36	RESIDUE	1 B	GLN
