# created with PyMOL 3.0.5
@<TRIPOS>MOLECULE
obj04
45 47 5                 
SMALL
USER_CHARGES
@<TRIPOS>ATOM
1	   N	38.700	52.622	34.437	N.3	1	TYR1	0.000	
2	  CA	38.367	51.200	34.604	C.3	1	TYR1	0.000	
3	   C	37.370	51.028	35.753	C.2	1	TYR1	0.000	
4	   O	37.227	51.954	36.552	O.2	1	TYR1	0.000	
5	  CB	39.640	50.375	34.795	C.3	1	TYR1	0.000	
6	  CG	40.310	50.478	36.150	C.2	1	TYR1	0.000	
7	 CD1	41.096	51.596	36.486	C.2	1	TYR1	0.000	
8	 CD2	40.216	49.399	37.044	C.2	1	TYR1	0.000	
9	 CE1	41.793	51.629	37.697	C.2	1	TYR1	0.000	
10	 CE2	40.913	49.421	38.249	C.2	1	TYR1	0.000	
11	  CZ	41.713	50.531	38.571	C.2	1	TYR1	0.000	
12	  OH	42.443	50.524	39.729	O.3	1	TYR1	0.000	
13	   N	36.646	49.868	35.900	N.am	2	PRO2	0.000	
14	  CA	35.564	49.723	36.864	C.3	2	PRO2	0.000	
15	   C	36.095	49.553	38.296	C.2	2	PRO2	0.000	
16	   O	36.105	48.464	38.870	O.2	2	PRO2	0.000	
17	  CB	34.708	48.567	36.336	C.3	2	PRO2	0.000	
18	  CG	35.697	47.694	35.586	C.3	2	PRO2	0.000	
19	  CD	36.732	48.682	35.064	C.3	2	PRO2	0.000	
20	   N	36.562	50.657	38.860	N.am	3	GLN3	0.000	
21	  CA	36.978	50.853	40.248	C.3	3	GLN3	0.000	
22	   C	36.439	52.215	40.701	C.2	3	GLN3	0.000	
23	   O	36.429	53.133	39.890	O.2	3	GLN3	0.000	
24	  CB	38.513	50.772	40.348	C.3	3	GLN3	0.000	
25	  CG	39.026	51.003	41.773	C.3	3	GLN3	0.000	
26	  CD	40.482	50.638	41.992	C.2	3	GLN3	0.000	
27	 NE2	41.018	50.898	43.163	N.pl3	3	GLN3	0.000	
28	 OE1	41.168	50.113	41.143	O.2	3	GLN3	0.000	
29	   N	36.013	52.346	41.973	N.am	4	PRO4	0.000	
30	  CA	35.511	53.619	42.499	C.3	4	PRO4	0.000	
31	   C	36.472	54.780	42.234	C.2	4	PRO4	0.000	
32	   O	37.692	54.612	42.327	O.2	4	PRO4	0.000	
33	  CB	35.308	53.400	44.002	C.3	4	PRO4	0.000	
34	  CG	35.109	51.896	44.113	C.3	4	PRO4	0.000	
35	  CD	35.974	51.325	43.012	C.3	4	PRO4	0.000	
36	   N	35.907	55.920	41.871	N.am	5	GLN5	0.000	
37	  CA	36.657	57.150	41.626	C.3	5	GLN5	0.000	
38	   C	37.160	57.769	42.928	C.2	5	GLN5	0.000	
39	   O	36.479	57.647	43.969	O.co2	5	GLN5	0.000	
40	  CB	35.819	58.161	40.811	C.3	5	GLN5	0.000	
41	  CG	35.526	57.649	39.383	C.3	5	GLN5	0.000	
42	  CD	34.866	58.700	38.485	C.2	5	GLN5	0.000	
43	 NE2	34.446	58.346	37.284	N.pl3	5	GLN5	0.000	
44	 OE1	34.716	59.855	38.846	O.2	5	GLN5	0.000	
45	 OXT	38.263	58.373	42.880	O.co2	5	GLN5	0.000	
@<TRIPOS>BOND
1 1 2 1
2 2 3 1
3 2 5 1
4 3 4 2
5 3 13 1
6 5 6 1
7 6 7 2
8 6 8 1
9 7 9 1
10 8 10 2
11 9 11 2
12 10 11 1
13 11 12 1
14 13 14 1
15 13 19 1
16 14 15 1
17 14 17 1
18 15 16 2
19 15 20 1
20 17 18 1
21 18 19 1
22 20 21 1
23 21 22 1
24 21 24 1
25 22 23 2
26 22 29 1
27 24 25 1
28 25 26 1
29 26 27 1
30 26 28 2
31 29 30 1
32 29 35 1
33 30 31 1
34 30 33 1
35 31 32 2
36 31 36 1
37 33 34 1
38 34 35 1
39 36 37 1
40 37 38 1
41 37 40 1
42 38 39 2
43 38 45 1
44 40 41 1
45 41 42 1
46 42 43 1
47 42 44 2
@<TRIPOS>SUBSTRUCTURE
1	TYR1	1	RESIDUE	1 B	TYR
2	PRO2	13	RESIDUE	1 B	PRO
3	GLN3	20	RESIDUE	1 B	GLN
4	PRO4	29	RESIDUE	1 B	PRO
5	GLN5	36	RESIDUE	1 B	GLN
