# created with PyMOL 3.0.5
@<TRIPOS>MOLECULE
obj03
45 47 1                 
SMALL
USER_CHARGES
@<TRIPOS>ATOM
1	  N1	40.249	51.653	42.178	N.4	1	UNK0	0.000	
2	  C2	39.404	50.745	41.415	C.3	1	UNK0	0.000	
3	  C3	38.100	50.388	42.172	C.3	1	UNK0	0.000	
4	  C4	38.233	49.649	43.493	C.2	1	UNK0	0.000	
5	  C5	37.330	49.926	44.520	C.2	1	UNK0	0.000	
6	  C6	37.309	49.173	45.690	C.2	1	UNK0	0.000	
7	  C7	39.148	48.615	43.692	C.2	1	UNK0	0.000	
8	  C8	39.133	47.860	44.867	C.2	1	UNK0	0.000	
9	  C9	38.195	48.115	45.861	C.2	1	UNK0	0.000	
10	 O10	38.096	47.291	46.976	O.3	1	UNK0	0.000	
11	 C11	39.008	51.450	40.089	C.2	1	UNK0	0.000	
12	 O12	38.274	52.434	40.143	O.2	1	UNK0	0.000	
13	 N13	39.486	50.945	38.907	N.pl3	1	UNK0	0.000	
14	 C14	38.810	51.247	37.649	C.3	1	UNK0	0.000	
15	 C15	40.677	50.089	38.727	C.3	1	UNK0	0.000	
16	 C16	40.670	49.781	37.206	C.3	1	UNK0	0.000	
17	 C17	39.256	50.113	36.728	C.3	1	UNK0	0.000	
18	 C18	41.950	50.843	39.206	C.2	1	UNK0	0.000	
19	 O19	41.911	51.432	40.282	O.2	1	UNK0	0.000	
20	 N20	42.999	50.852	38.351	N.pl3	1	UNK0	0.000	
21	 C21	44.022	51.902	38.262	C.3	1	UNK0	0.000	
22	 C22	44.489	52.498	39.612	C.3	1	UNK0	0.000	
23	 C23	45.565	53.599	39.474	C.3	1	UNK0	0.000	
24	 C24	45.113	54.712	38.508	C.2	1	UNK0	0.000	
25	 O25	44.061	55.315	38.675	O.2	1	UNK0	0.000	
26	 N26	45.939	54.904	37.474	N.pl3	1	UNK0	0.000	
27	 C27	45.249	51.375	37.468	C.2	1	UNK0	0.000	
28	 O28	46.059	50.626	38.000	O.2	1	UNK0	0.000	
29	 N29	45.371	51.811	36.182	N.pl3	1	UNK0	0.000	
30	 C30	44.311	52.463	35.408	C.3	1	UNK0	0.000	
31	 C31	46.609	51.651	35.412	C.3	1	UNK0	0.000	
32	 C32	46.350	52.422	34.108	C.3	1	UNK0	0.000	
33	 C33	44.827	52.441	33.966	C.3	1	UNK0	0.000	
34	 C34	47.910	52.135	36.089	C.2	1	UNK0	0.000	
35	 O35	47.887	52.994	36.960	O.2	1	UNK0	0.000	
36	 N36	49.025	51.528	35.629	N.pl3	1	UNK0	0.000	
37	 C37	50.336	52.151	35.782	C.3	1	UNK0	0.000	
38	 C38	51.335	51.239	36.542	C.3	1	UNK0	0.000	
39	 C39	51.624	49.849	35.927	C.3	1	UNK0	0.000	
40	 C40	52.591	48.991	36.784	C.2	1	UNK0	0.000	
41	 O41	52.364	47.812	37.047	O.2	1	UNK0	0.000	
42	 N42	53.690	49.631	37.208	N.pl3	1	UNK0	0.000	
43	 C43	50.780	52.519	34.352	C.2	1	UNK0	0.000	
44	 O44	50.724	51.644	33.490	O.co2	1	UNK0	0.000	
45	 O45	51.101	53.679	34.083	O.co2	1	UNK0	0.000	
@<TRIPOS>BOND
1 1 2 1
2 2 3 1
3 2 11 1
4 3 4 1
5 4 5 ar
6 4 7 ar
7 5 6 ar
8 6 9 ar
9 7 8 ar
10 8 9 ar
11 9 10 1
12 11 12 2
13 11 13 1
14 13 14 1
15 13 15 1
16 14 17 1
17 15 16 1
18 15 18 1
19 16 17 1
20 18 19 2
21 18 20 1
22 20 21 1
23 21 22 1
24 21 27 1
25 22 23 1
26 23 24 1
27 24 25 2
28 24 26 1
29 27 28 2
30 27 29 1
31 29 30 1
32 29 31 1
33 30 33 1
34 31 32 1
35 31 34 1
36 32 33 1
37 34 35 2
38 34 36 1
39 36 37 1
40 37 38 1
41 37 43 1
42 38 39 1
43 39 40 1
44 40 41 2
45 40 42 1
46 43 44 ar
47 43 45 ar
@<TRIPOS>SUBSTRUCTURE
1	UNK0	1	GROUP	1 ****	UNK
