# created with PyMOL 3.0.5
@<TRIPOS>MOLECULE
obj01
45 47 1                 
SMALL
USER_CHARGES
@<TRIPOS>ATOM
1	   N	36.416	51.706	41.589	N.3	1	<1>1	0.000	
2	   N	37.318	54.216	43.826	N.3	1	<1>1	0.000	
3	   N	34.948	52.484	45.469	N.3	1	<1>1	0.000	
4	   N	40.000	50.478	41.495	N.3	1	<1>1	0.000	
5	   N	41.085	53.448	39.202	N.3	1	<1>1	0.000	
6	   N	38.247	51.462	34.584	N.3	1	<1>1	0.000	
7	   N	36.310	49.550	37.618	N.3	1	<1>1	0.000	
8	   C	37.772	51.709	41.025	C.3	1	<1>1	0.000	
9	   C	35.854	52.796	42.175	C.3	1	<1>1	0.000	
10	   C	36.654	54.029	42.537	C.3	1	<1>1	0.000	
11	   C	37.918	55.528	44.020	C.3	1	<1>1	0.000	
12	   C	37.294	53.359	44.882	C.3	1	<1>1	0.000	
13	   C	37.001	56.362	43.080	C.3	1	<1>1	0.000	
14	   C	35.898	55.373	42.607	C.3	1	<1>1	0.000	
15	   C	36.352	52.187	45.098	C.3	1	<1>1	0.000	
16	   C	36.944	51.242	46.193	C.3	1	<1>1	0.000	
17	   C	36.199	49.912	46.448	C.3	1	<1>1	0.000	
18	   C	36.395	48.827	45.453	C.3	1	<1>1	0.000	
19	   C	35.771	47.574	45.609	C.3	1	<1>1	0.000	
20	   C	34.896	47.312	46.779	C.3	1	<1>1	0.000	
21	   C	34.693	48.322	47.720	C.3	1	<1>1	0.000	
22	   C	35.348	49.643	47.566	C.3	1	<1>1	0.000	
23	   C	38.705	50.792	41.795	C.3	1	<1>1	0.000	
24	   C	40.838	51.141	40.481	C.3	1	<1>1	0.000	
25	   C	40.580	49.312	42.158	C.3	1	<1>1	0.000	
26	   C	42.199	50.437	40.747	C.3	1	<1>1	0.000	
27	   C	41.786	49.027	41.233	C.3	1	<1>1	0.000	
28	   C	40.807	52.661	40.283	C.3	1	<1>1	0.000	
29	   C	41.228	53.021	37.802	C.3	1	<1>1	0.000	
30	   C	40.006	52.232	37.243	C.3	1	<1>1	0.000	
31	   C	40.302	51.400	35.967	C.3	1	<1>1	0.000	
32	   C	39.027	50.778	35.449	C.3	1	<1>1	0.000	
33	   C	41.813	54.171	36.990	C.3	1	<1>1	0.000	
34	   C	37.607	51.124	39.590	C.3	1	<1>1	0.000	
35	   C	36.412	51.717	38.799	C.3	1	<1>1	0.000	
36	   C	36.111	50.884	37.576	C.3	1	<1>1	0.000	
37	   O	34.656	52.816	42.403	O.3	1	<1>1	0.000	
38	   O	38.090	53.554	45.790	O.3	1	<1>1	0.000	
39	   O	34.271	46.076	46.957	O.3	1	<1>1	0.000	
40	   O	38.184	50.268	42.768	O.3	1	<1>1	0.000	
41	   O	40.467	53.267	41.290	O.3	1	<1>1	0.000	
42	   O	38.725	49.664	35.837	O.3	1	<1>1	0.000	
43	   O	43.017	54.339	36.917	O.3	1	<1>1	0.000	
44	   O	41.017	55.008	36.306	O.3	1	<1>1	0.000	
45	   O	35.696	51.434	36.568	O.3	1	<1>1	0.000	
@<TRIPOS>BOND
1 1 8 1
2 1 9 1
3 2 10 1
4 2 11 1
5 2 12 1
6 3 15 1
7 4 23 1
8 4 24 1
9 4 25 1
10 5 28 1
11 5 29 1
12 6 32 1
13 7 36 1
14 8 23 1
15 8 34 1
16 9 10 1
17 9 37 1
18 10 14 1
19 11 13 1
20 12 15 1
21 12 38 1
22 13 14 1
23 15 16 1
24 16 17 1
25 17 18 1
26 17 22 1
27 18 19 1
28 19 20 1
29 20 21 1
30 20 39 1
31 21 22 1
32 23 40 1
33 24 26 1
34 24 28 1
35 25 27 1
36 26 27 1
37 28 41 1
38 29 30 1
39 29 33 1
40 30 31 1
41 31 32 1
42 32 42 1
43 33 43 1
44 33 44 1
45 34 35 1
46 35 36 1
47 36 45 1
@<TRIPOS>SUBSTRUCTURE
1	<1>1	1	GROUP	1 d	<1>
